/*--------------------------------*- C++ -*----------------------------------*\
|=========                 |
| \\      /  F ield         | OpenFOAM: The Open Source CFD Toolbox
|  \\    /   O peration     | Website:  https://openfoam.org
|   \\  /    A nd           |
|    \\/     M anipulation  |
\*---------------------------------------------------------------------------*/

FoamFile
{
    version     2.0;
    format      ascii;
    class       volScalarField;
    location    "0";
    object      p;
}
// * * * * * * * * * * * * * * * * * * * * * * * * * * * * * * * * * * * * * //

dimensions      [1 -1 -2 0 0 0 0];  // Pressure units (Pa)

internalField   uniform 0;  // Initial pressure field, adjust based on your case

boundaryField
{
    inlet
    {
        type            zeroGradient;  // No pressure gradient at inlet
    }

    outlet
    {
        type            fixedValue;    // Set pressure to atmospheric (or 0)
        value           uniform 0;
    }

    walls
    {
        type            zeroGradient;  // No pressure gradient at solid walls
    }

    symmetryPlane
    {
        type            symmetryPlane;  // If applicable, symmetry condition
    }

    airfoil
    {
        type            zeroGradient;  // No pressure gradient on the airfoil surface
    }
}

// ************************************************************************* //
